*Heading
 test
** Job name: Job-1 Model name: Model-1
** Generated by: Abaqus/CAE Student Edition 2017
*Preprint, echo=NO, model=NO, history=NO, contact=NO
**
** PARTS
**
*Part, name=Part-1
*Node
      1,           1.,           0.,   1.60000002
      2,   0.99619472, 0.0871557444,   1.60000002
      3,   0.98480773,  0.173648179,   1.60000002
      4,  0.965925813,  0.258819044,   1.60000002
      5,  0.939692616,  0.342020154,   1.60000002
      6,  0.906307817,   0.42261827,   1.60000002
      7,  0.866025388,          0.5,   1.60000002
      8,           1.,           0.,          1.5
      9,   0.99619472, 0.0871557444,          1.5
     10,   0.98480773,  0.173648179,          1.5
     11,  0.965925813,  0.258819044,          1.5
     12,  0.939692616,  0.342020154,          1.5
     13,  0.906307817,   0.42261827,          1.5
     14,  0.866025388,          0.5,          1.5
     15,           1.,           0.,   1.39999998
     16,   0.99619472, 0.0871557444,   1.39999998
     17,   0.98480773,  0.173648179,   1.39999998
     18,  0.965925813,  0.258819044,   1.39999998
     19,  0.939692616,  0.342020154,   1.39999998
     20,  0.906307817,   0.42261827,   1.39999998
** ... 218 like lines cut
*Element, type=C3D8R
 1, 120, 121, 128, 127,   1,   2,   9,   8
 2, 121, 122, 129, 128,   2,   3,  10,   9
 3, 122, 123, 130, 129,   3,   4,  11,  10
 4, 123, 124, 131, 130,   4,   5,  12,  11
 5, 124, 125, 132, 131,   5,   6,  13,  12
 6, 125, 126, 133, 132,   6,   7,  14,  13
 7, 127, 128, 135, 134,   8,   9,  16,  15
 8, 128, 129, 136, 135,   9,  10,  17,  16
 9, 129, 130, 137, 136,  10,  11,  18,  17
10, 130, 131, 138, 137,  11,  12,  19,  18
11, 131, 132, 139, 138,  12,  13,  20,  19
12, 132, 133, 140, 139,  13,  14,  21,  20
13, 134, 135, 142, 141,  15,  16,  23,  22
14, 135, 136, 143, 142,  16,  17,  24,  23
15, 136, 137, 144, 143,  17,  18,  25,  24
16, 137, 138, 145, 144,  18,  19,  26,  25
17, 138, 139, 146, 145,  19,  20,  27,  26
18, 139, 140, 147, 146,  20,  21,  28,  27
19, 141, 142, 149, 148,  22,  23,  30,  29
20, 142, 143, 150, 149,  23,  24,  31,  30
** ... 76 like lines cut
*Nset, nset=Set-1, generate
   1,  238,    1
*Elset, elset=Set-1, generate
  1,  96,   1
** Section: test
*Solid Section, elset=Set-1, material=Material-1
,
*End Part
**  
**
** ASSEMBLY
**
*Assembly, name=Assembly
**  
*Instance, name=Part-1-1, part=Part-1
*End Instance
**  
*Nset, nset=Set-1, instance=Part-1-1
   1,   7,   8,  14,  15,  21,  22,  28,  29,  35,  36,  42,  43,  49,  50,  56
  57,  63,  64,  70,  71,  77,  78,  84,  85,  91,  92,  98,  99, 105, 106, 112
 113, 119, 120, 126, 127, 133, 134, 140, 141, 147, 148, 154, 155, 161, 162, 168
 169, 175, 176, 182, 183, 189, 190, 196, 197, 203, 204, 210, 211, 217, 218, 224
 225, 231, 232, 238
*Elset, elset=Set-1, instance=Part-1-1
  1,  6,  7, 12, 13, 18, 19, 24, 25, 30, 31, 36, 37, 42, 43, 48
 49, 54, 55, 60, 61, 66, 67, 72, 73, 78, 79, 84, 85, 90, 91, 96
*Nset, nset=Set-2, instance=Part-1-1
   1,   2,   3,   4,   5,   6,   7, 113, 114, 115, 116, 117, 118, 119, 120, 121
 122, 123, 124, 125, 126, 232, 233, 234, 235, 236, 237, 238
*Elset, elset=Set-2, instance=Part-1-1
  1,  2,  3,  4,  5,  6, 91, 92, 93, 94, 95, 96
*Elset, elset=_Surf-1_S2, internal, instance=Part-1-1, generate
  1,  96,   1
*Surface, type=ELEMENT, name=Surf-1
_Surf-1_S2, S2
*Nset, nset=_T-cyl, internal
Set-1, 
Set-2, 
*Transform, nset=_T-cyl, type=C
          0.,           0.,           0.,           0.,           0.,           1.
*End Assembly
** 
** MATERIALS
** 
*Material, name=Material-1
*Elastic
196000., 0.3
** ----------------------------------------------------------------
** 
** STEP: Step-1
** 
*Step, name=Step-1, nlgeom=YES
test
*Static
1., 1., 1e-05, 1.
** 
** BOUNDARY CONDITIONS
** 
** Name: BC-1 Type: Displacement/Rotation
*Boundary
Set-1, 2, 2
** Name: BC-2 Type: Displacement/Rotation
*Boundary
Set-2, 3, 3
** 
** LOADS
** 
** Name: Load-1   Type: Pressure
*Dsload
Surf-1, P, 100.
** 
** OUTPUT REQUESTS
** 
*Restart, write, frequency=0
** 
** FIELD OUTPUT: F-Output-1
** 
*Output, field, variable=PRESELECT, number interval=100
** 
** HISTORY OUTPUT: H-Output-1
** 
*Output, history, variable=PRESELECT
*End Step
