** written by FreeCAD inp file writer for CalculiX,Abaqus meshes

** Nodes
*Node, NSET=Nall
1, 8, -10, -1.224646799646e-015
2, 8.01577091217, -9.749333381653, -1.193949055088e-015
3, 8, -9.921147346497, -1.25333237648
4, 8.01577091217, -9.672456741333, -1.221915483475
5, 8.01577091217, -10.16983699799, -1.284749150276
6, 8.140446662903, -10.73624897003, -1.314811339298e-015
7, 8.062833786011, -10.49737930298, -1.285558209432e-015
8, 8.140446662903, -10.65159034729, -1.345608830452
9, 8.062833786011, -10.41460514069, -1.315670609474
10, 8.01577091217, -10.25066661835, -1.255344544204e-015
11, 8.062833786011, -10.16758537292, -2.610592126846
12, 8.01577091217, -9.928623199463, -2.549237012863
13, 8.062833786011, -9.760216712952, -3.864343166351
14, 9.874419212341, -11.99605369568, -1.469092884927e-015
15, 9.625237464905, -11.96457481384, -1.465237826225e-015
16, 9.874419212341, -11.90146064758, -1.503504157066
17, 9.625237464905, -11.87023067474, -1.499558806419
18, 9.381965637207, -11.90211296082, -1.457588483437e-015
19, 9.381965637207, -11.80826091766, -1.491730332375
20, 9.148441314697, -11.80965423584, -1.446265558756e-015
** ... 21653 like lines cut


** Volume elements
*Element, TYPE=C3D10, ELSET=Evolumes
12985, 11995, 1781, 12056, 12123, 12429, 12427, 12428, 12431, 12430, 12432
12986, 11998, 1332, 12074, 12125, 12435, 12433, 12434, 12437, 12436, 12438
12987, 12227, 9582, 12162, 12234, 12441, 12439, 12440, 12443, 12442, 12444
12988, 12228, 10792, 12161, 12233, 12447, 12445, 12446, 12449, 12448, 12450
12989, 12062, 697, 12064, 12124, 12453, 12451, 12452, 12455, 12454, 12456
12990, 12068, 559, 12070, 12126, 12459, 12457, 12458, 12461, 12460, 12462
12991, 12008, 592, 12048, 12081, 12465, 12463, 12464, 12467, 12466, 12468
12992, 12007, 1364, 12047, 12079, 12471, 12469, 12470, 12473, 12472, 12474
12993, 12007, 11949, 12047, 12254, 12476, 12475, 12470, 12478, 12477, 12479
12994, 12008, 11951, 12048, 12251, 12481, 12480, 12464, 12483, 12482, 12484
12995, 11951, 12008, 12048, 12081, 12481, 12464, 12480, 12485, 12467, 12468
12996, 11949, 12007, 12047, 12079, 12476, 12470, 12475, 12486, 12473, 12474
12997, 11932, 12141, 12220, 12406, 12489, 12487, 12488, 12491, 12490, 12492
12998, 12219, 10722, 12142, 12405, 12495, 12493, 12494, 12497, 12496, 12498
12999, 12111, 11932, 12141, 12220, 12500, 12489, 12499, 12501, 12488, 12487
13000, 12112, 10722, 12142, 12219, 12503, 12493, 12502, 12504, 12495, 12494
13001, 12109, 12173, 12259, 12382, 12507, 12505, 12506, 12509, 12508, 12510
13002, 12110, 12174, 12260, 12381, 12513, 12511, 12512, 12515, 12514, 12516
13003, 12066, 11960, 12124, 12308, 12519, 12517, 12518, 12521, 12520, 12522
13004, 12060, 11958, 12123, 12307, 12525, 12523, 12524, 12527, 12526, 12528
** ... 11721 like lines cut

** Define element set Eall
*ELSET, ELSET=Eall
Evolumes



***********************************************************
** Element sets for materials and FEM element type (solid, shell, beam, fluid)
** written by write_element_sets_material_and_femelement_type function
*ELSET,ELSET=SolidMaterialSolid
Evolumes

***********************************************************
** Node sets for fixed constraint
** written by write_node_sets_constraints_fixed function
** FemConstraintFixed
*NSET,NSET=FemConstraintFixed
5147,
5150,
5153,
5156,
5159,
5162,
11697,
11698,
11699,
11700,
11701,
5178,
5180,
5181,
5182,
5183,
5184,
5185,
5186,
5187,
** ... 23 like lines cut

***********************************************************
** Materials
** written by write_materials function
** Young's modulus unit is MPa = N/mm2
** FreeCAD material name: PLA
** SolidMaterial
*MATERIAL, NAME=SolidMaterial
*ELASTIC
3640, 0.360

***********************************************************
** Sections
** written by write_femelementsets function
*SOLID SECTION, ELSET=SolidMaterialSolid, MATERIAL=SolidMaterial

***********************************************************
** At least one step is needed to run an CalculiX analysis of FreeCAD
** written by write_step_begin function
*STEP
*STATIC


***********************************************************
** Fixed Constraints
** written by write_constraints_fixed function
** FemConstraintFixed
*BOUNDARY
FemConstraintFixed,1
FemConstraintFixed,2
FemConstraintFixed,3


***********************************************************
** Node loads Constraints
** written by write_constraints_force function
*CLOAD
** FemConstraintForce
** node loads on shape: Torus001001_solid:Face3137
772,1,-0.0000000000000E+00
772,3,-0.0000000000000E+00
773,1,-0.0000000000000E+00
773,3,-0.0000000000000E+00
1562,1,-0.0000000000000E+00
1562,3,-0.0000000000000E+00
1564,1,-0.0000000000000E+00
1564,3,-0.0000000000000E+00
4558,1,-9.5017931980733E-02
4558,3,-1.7317777115368E-01
6743,1,-9.5017931980733E-02
6743,3,-1.7317777115368E-01
7555,1,-9.4321218632981E-02
7555,3,-1.7190795542330E-01
7556,1,-9.5714645328443E-02
7556,3,-1.7444758688397E-01
10077,1,-0.0000000000000E+00
10077,3,-0.0000000000000E+00
10078,1,-1.9073257730918E-01
10078,3,-3.4762535803765E-01
** ... 6 like lines cut

** node loads on shape: Torus001001_solid:Face3141
776,1,-0.0000000000000E+00
776,3,-0.0000000000000E+00
777,1,-0.0000000000000E+00
777,3,-0.0000000000000E+00
1570,1,-0.0000000000000E+00
1570,3,-0.0000000000000E+00
1572,1,-0.0000000000000E+00
1572,3,-0.0000000000000E+00
4570,1,-1.0274690020126E-01
4570,3,-1.8726443313259E-01
6759,1,-1.0274690020126E-01
6759,3,-1.8726443313259E-01
7559,1,-1.0152698352518E-01
7559,3,-1.8504103754239E-01
7560,1,-1.0396681687733E-01
7560,3,-1.8948782872278E-01
10097,1,-0.0000000000000E+00
10097,3,-0.0000000000000E+00
10098,1,-2.0671371707859E-01
10098,3,-3.7675226185538E-01
** ... 6 like lines cut

** node loads on shape: Torus001001_solid:Face3144
779,1,-0.0000000000000E+00
779,3,-0.0000000000000E+00
780,1,-0.0000000000000E+00
780,3,-0.0000000000000E+00
1576,1,-0.0000000000000E+00
1576,3,-0.0000000000000E+00
1578,1,-0.0000000000000E+00
1578,3,-0.0000000000000E+00
4579,1,-1.1069409703855E-01
4579,3,-2.0174883419786E-01
6771,1,-1.1069409703855E-01
6771,3,-2.0174883419786E-01
7562,1,-1.0927555576645E-01
7562,3,-1.9916342941509E-01
7563,1,-1.1211263831065E-01
7563,3,-2.0433423898064E-01
10112,1,-0.0000000000000E+00
10112,3,-0.0000000000000E+00
10113,1,-2.2280673534920E-01
10113,3,-4.0608307317850E-01
** ... 6 like lines cut

** node loads on shape: Torus001001_solid:Face2630
770,1,-0.0000000000000E+00
770,3,-0.0000000000000E+00
1246,1,-0.0000000000000E+00
1246,3,-0.0000000000000E+00
1557,1,-0.0000000000000E+00
1557,3,-0.0000000000000E+00
1558,1,-0.0000000000000E+00
1558,3,-0.0000000000000E+00
5888,1,-9.2395374668884E-02
5888,3,-1.6839795096057E-01
6730,1,-9.2214036336303E-02
6730,3,-1.6806744736397E-01
6731,1,-9.2395374668884E-02
6731,3,-1.6839795096057E-01
6732,1,-9.2576713001478E-02
6732,3,-1.6872845455719E-01
10062,1,-0.0000000000000E+00
10062,3,-0.0000000000000E+00
10063,1,-1.8460941100519E-01
10063,3,-3.3646539832454E-01
** ... 6 like lines cut



***********************************************************
** Outputs --> frd file
** written by write_outputs_types function
*NODE FILE
U
*EL FILE
S, E
** outputs --> dat file
*NODE PRINT , NSET=Nall
U 
*EL PRINT , ELSET=Eall
S 

***********************************************************
** written by write_step_end function
*END STEP 

***********************************************************
** CalculiX Input file
** written by write_footer function
**   written by    --> FreeCAD 0.17.11508 (Git)
**   written on    --> Fri Jul 07 13:08:52 2017
**   file name     --> 
**   analysis name --> Analysis
**
**
**
**   Units
**
**   Geometry (mesh data)        --> mm
**   Materials (Young's modulus) --> N/mm2 = MPa
**   Loads (nodal loads)         --> N
**
