** written by FreeCAD inp file writer for CalculiX,Abaqus meshes

** Nodes
*Node, NSET=Nall
1, 0, 0, 10
2, 0, 0, 0
3, 0, 10, 10
4, 0, 10, 0
5, 10, 0, 10
6, 10, 0, 0
7, 10, 10, 10
8, 10, 10, 0
9, 0, 0, 1.666666666667
10, 0, 0, 3.333333333333
11, 0, 0, 5
12, 0, 0, 6.666666666667
13, 0, 0, 8.333333333333
14, 0, 0, 0.8333333333333
15, 0, 0, 2.5
16, 0, 0, 4.166666666667
17, 0, 0, 5.833333333333
18, 0, 0, 7.5
19, 0, 0, 9.166666666667
20, 0, 1.666666666667, 10
** ... 2094 like lines cut


** Volume elements
*Element, TYPE=C3D10, ELSET=Evolumes
697, 143, 1253, 1268, 1279, 1297, 1295, 1296, 1299, 1298, 1300
698, 1272, 1255, 1277, 1287, 1303, 1301, 1302, 1305, 1304, 1306
699, 909, 1253, 1268, 1280, 1308, 1295, 1307, 1310, 1309, 1311
700, 1277, 165, 1272, 1287, 1313, 1312, 1302, 1306, 1314, 1305
701, 1257, 1251, 1258, 1262, 1317, 1315, 1316, 1319, 1318, 1320
702, 1257, 327, 346, 1271, 1322, 475, 1321, 1324, 1323, 1325
703, 1253, 536, 1266, 1274, 1328, 1326, 1327, 1330, 1329, 1331
704, 1251, 1257, 1258, 1264, 1317, 1316, 1315, 1333, 1332, 1334
705, 1268, 902, 909, 1280, 1335, 1026, 1307, 1311, 1336, 1310
706, 143, 156, 1253, 1279, 296, 1337, 1297, 1299, 1338, 1298
707, 1272, 165, 1087, 1287, 1312, 1339, 1340, 1305, 1314, 1341
708, 709, 724, 1257, 1264, 824, 1342, 1343, 1345, 1344, 1332
709, 1257, 697, 1270, 1271, 1348, 1346, 1347, 1324, 1349, 1350
710, 163, 143, 1268, 1279, 295, 1296, 1351, 1352, 1299, 1300
711, 1264, 724, 1257, 1286, 1344, 1342, 1332, 1354, 1353, 1355
712, 1253, 143, 1268, 1274, 1297, 1296, 1295, 1330, 1356, 1357
713, 158, 157, 145, 1281, 312, 314, 313, 1359, 1358, 1360
714, 525, 1255, 1266, 1274, 1363, 1361, 1362, 1365, 1364, 1331
715, 918, 892, 549, 366, 957, 1366, 1367, 1369, 1368, 1370
716, 1251, 1254, 1277, 1287, 1373, 1371, 1372, 1375, 1374, 1306
** ... 1067 like lines cut

** Define element set Eall
*ELSET, ELSET=Eall
Evolumes



***********************************************************
** Element sets for materials and FEM element type (solid, shell, beam, fluid)
** written by write_element_sets_material_and_femelement_type function
*ELSET,ELSET=SolidMaterialSolid
Evolumes

***********************************************************
** Node sets for fixed constraint
** written by write_node_sets_constraints_fixed function
** FemConstraintFixed
*NSET,NSET=FemConstraintFixed
1,
2,
3,
4,
9,
10,
11,
12,
13,
14,
15,
16,
17,
18,
19,
20,
21,
22,
23,
24,
** ... 213 like lines cut

***********************************************************
** Node sets for prescribed displacement constraint
** written by write_node_sets_constraints_displacement function
** FemConstraintDisplacement
*NSET,NSET=FemConstraintDisplacement
5,
6,
7,
8,
53,
54,
55,
56,
57,
58,
59,
60,
61,
62,
63,
64,
65,
66,
67,
68,
** ... 213 like lines cut

***********************************************************
** Materials
** written by write_materials function
** Young's modulus unit is MPa = N/mm2
** FreeCAD material name: Steel-Generic
** SolidMaterial
*MATERIAL, NAME=SolidMaterial
*ELASTIC
210000, 0.300

***********************************************************
** Sections
** written by write_femelementsets function
*SOLID SECTION, ELSET=SolidMaterialSolid, MATERIAL=SolidMaterial

***********************************************************
** At least one step is needed to run an CalculiX analysis of FreeCAD
** written by write_step_begin function
*STEP
*STATIC


***********************************************************
** Fixed Constraints
** written by write_constraints_fixed function
** FemConstraintFixed
*BOUNDARY
FemConstraintFixed,1
FemConstraintFixed,2
FemConstraintFixed,3


***********************************************************
** Displacement constraint applied
** written by write_constraints_displacement function
** FemConstraintDisplacement
*BOUNDARY
FemConstraintDisplacement,1,1,1.0
FemConstraintDisplacement,2,2,1.0
FemConstraintDisplacement,3,3,0.0


***********************************************************
** Outputs --> frd file
** written by write_outputs_types function
*NODE FILE
U
*EL FILE
S, E
** outputs --> dat file
*NODE PRINT , NSET=Nall
U 
*EL PRINT , ELSET=Eall
S 

***********************************************************
** written by write_step_end function
*END STEP 

***********************************************************
** CalculiX Input file
** written by write_footer function
**   written by    --> FreeCAD 0.17.11508 (Git)
**   written on    --> Tue Jul 25 09:51:24 2017
**   file name     --> 
**   analysis name --> Analysis
**
**
**
**   Units
**
**   Geometry (mesh data)        --> mm
**   Materials (Young's modulus) --> N/mm2 = MPa
**   Loads (nodal loads)         --> N
**
